examples/feeders/30_SE001_1/012_cargasBT_1_1.dss
New Load.BT_102500_M1 bus1=UC102500.1.2.3.4 phases=3 conn=Delta model=2 kv=0.38 kw=0.130799 pf=0.92 daily=RU4_DU status=variable vmaxpu=1.5 vminpu=0.92
New Load.BT_102500_M2 bus1=UC102500.1.2.3.4 phases=3 conn=Delta model=3 kv=0.38 kw=0.130799 pf=0.92 daily=RU4_DU status=variable vmaxpu=1.5 vminpu=0.92
New Load.BT_130959_M1 bus1=UC130959.1.4 phases=1 conn=Wye model=2 kv=0.22 kw=0.2482205 pf=0.92 daily=RU6_DU status=variable vmaxpu=1.5 vminpu=0.92
New Load.BT_130959_M2 bus1=UC130959.1.4 phases=1 conn=Wye model=3 kv=0.22 kw=0.2482205 pf=0.92 daily=RU6_DU status=variable vmaxpu=1.5 vminpu=0.92
New Load.BT_IP6245_M1 bus1=ET1_1368.1.4 phases=1 conn=Wye model=2 kv=0.22 kw=0.204713 pf=0.92 daily=IP1_DU status=variable vmaxpu=1.5 vminpu=0.92
New Load.BT_IP6245_M2 bus1=ET1_1368.1.4 phases=1 conn=Wye model=3 kv=0.22 kw=0.204713 pf=0.92 daily=IP1_DU status=variable vmaxpu=1.5 vminpu=0.92
New Load.BT_137886_M1 bus1=UC137886.1.2.3.4 phases=3 conn=Delta model=2 kv=0.38 kw=0 pf=0.92 daily=RU5_DU status=variable vmaxpu=1.5 vminpu=0.92
New Load.BT_137886_M2 bus1=UC137886.1.2.3.4 phases=3 conn=Delta model=3 kv=0.38 kw=0 pf=0.92 daily=RU5_DU status=variable vmaxpu=1.5 vminpu=0.92
New Load.BT_138938_M1 bus1=UC138938.1.2.3.4 phases=3 conn=Delta model=2 kv=0.38 kw=0 pf=0.92 daily=CO2_DU status=variable vmaxpu=1.5 vminpu=0.92
New Load.BT_138938_M2 bus1=UC138938.1.2.3.4 phases=3 conn=Delta model=3 kv=0.38 kw=0 pf=0.92 daily=CO2_DU status=variable vmaxpu=1.5 vminpu=0.92
New Load.BT_102220_M1 bus1=UC102220.2.4 phases=1 conn=Wye model=2 kv=0.219393102 kw=0.001133 pf=0.92 daily=RU6_DU status=variable vmaxpu=1.5 vminpu=0.92
New Load.BT_102220_M2 bus1=UC102220.2.4 phases=1 conn=Wye model=3 kv=0.219393102 kw=0.001133 pf=0.92 daily=RU6_DU status=variable vmaxpu=1.5 vminpu=0.92
New Load.BT_102487_M1 bus1=UC102487.2.4 phases=1 conn=Wye model=2 kv=0.219393102 kw=0.040699 pf=0.92 daily=RU8_DU status=variable vmaxpu=1.5 vminpu=0.92
New Load.BT_102487_M2 bus1=UC102487.2.4 phases=1 conn=Wye model=3 kv=0.219393102 kw=0.040699 pf=0.92 daily=RU8_DU status=variable vmaxpu=1.5 vminpu=0.92
New Load.BT_102488_M1 bus1=UC102488.1.2.3.4 phases=3 conn=Delta model=2 kv=0.38 kw=0.5795645 pf=0.92 daily=RU5_DU status=variable vmaxpu=1.5 vminpu=0.92
New Load.BT_102488_M2 bus1=UC102488.1.2.3.4 phases=3 conn=Delta model=3 kv=0.38 kw=0.5795645 pf=0.92 daily=RU5_DU status=variable vmaxpu=1.5 vminpu=0.92
New Load.BT_102489_M1 bus1=UC102489.1.4 phases=1 conn=Wye model=2 kv=0.219393102 kw=0.032806 pf=0.92 daily=RE6_DU status=variable vmaxpu=1.5 vminpu=0.92
New Load.BT_102489_M2 bus1=UC102489.1.4 phases=1 conn=Wye model=3 kv=0.219393102 kw=0.032806 pf=0.92 daily=RE6_DU status=variable vmaxpu=1.5 vminpu=0.92
New Load.BT_102491_M1 bus1=UC102491.3.4 phases=1 conn=Wye model=2 kv=0.219393102 kw=1.2470745 pf=0.92 daily=RU2_DU status=variable vmaxpu=1.5 vminpu=0.92
New Load.BT_102491_M2 bus1=UC102491.3.4 phases=1 conn=Wye model=3 kv=0.219393102 kw=1.2470745 pf=0.92 daily=RU2_DU status=variable vmaxpu=1.5 vminpu=0.92
New Load.BT_135377_M1 bus1=UC135377.2.4 phases=1 conn=Wye model=2 kv=0.219393102 kw=0.16502 pf=0.92 daily=RE4_DU status=variable vmaxpu=1.5 vminpu=0.92
New Load.BT_135377_M2 bus1=UC135377.2.4 phases=1 conn=Wye model=3 kv=0.219393102 kw=0.16502 pf=0.92 daily=RE4_DU status=variable vmaxpu=1.5 vminpu=0.92
New Load.BT_132505_M1 bus1=UC132505.1.4 phases=1 conn=Wye model=2 kv=0.219393102 kw=0 pf=0.92 daily=RE8_DU status=variable vmaxpu=1.5 vminpu=0.92
New Load.BT_132505_M2 bus1=UC132505.1.4 phases=1 conn=Wye model=3 kv=0.219393102 kw=0 pf=0.92 daily=RE8_DU status=variable vmaxpu=1.5 vminpu=0.92
New Load.BT_133396_M1 bus1=UC133396.1.4 phases=1 conn=Wye model=2 kv=0.219393102 kw=0.081315 pf=0.92 daily=RE7_DU status=variable vmaxpu=1.5 vminpu=0.92
New Load.BT_133396_M2 bus1=UC133396.1.4 phases=1 conn=Wye model=3 kv=0.219393102 kw=0.081315 pf=0.92 daily=RE7_DU status=variable vmaxpu=1.5 vminpu=0.92
New Load.BT_IP6150_M1 bus1=BT288341.1.4 phases=1 conn=Wye model=2 kv=0.219393102 kw=0.204713 pf=0.92 daily=IP1_DU status=variable vmaxpu=1.5 vminpu=0.92
New Load.BT_IP6150_M2 bus1=BT288341.1.4 phases=1 conn=Wye model=3 kv=0.219393102 kw=0.204713 pf=0.92 daily=IP1_DU status=variable vmaxpu=1.5 vminpu=0.92
New Load.BT_133471_M1 bus1=UC133471.1.4 phases=1 conn=Wye model=2 kv=0.219393102 kw=0.2640885 pf=0.92 daily=RU6_DU status=variable vmaxpu=1.5 vminpu=0.92
New Load.BT_133471_M2 bus1=UC133471.1.4 phases=1 conn=Wye model=3 kv=0.219393102 kw=0.2640885 pf=0.92 daily=RU6_DU status=variable vmaxpu=1.5 vminpu=0.92
New Load.BT_134151_M1 bus1=UC134151.1.4 phases=1 conn=Wye model=2 kv=0.219393102 kw=0.2664745 pf=0.92 daily=RU7_DU status=variable vmaxpu=1.5 vminpu=0.92
New Load.BT_134151_M2 bus1=UC134151.1.4 phases=1 conn=Wye model=3 kv=0.219393102 kw=0.2664745 pf=0.92 daily=RU7_DU status=variable vmaxpu=1.5 vminpu=0.92
New Load.BT_130831_M1 bus1=UC130831.2.3.4 phases=1 conn=Delta model=2 kv=0.38 kw=0.5742015 pf=0.92 daily=RU1_DU status=variable vmaxpu=1.5 vminpu=0.92
New Load.BT_130831_M2 bus1=UC130831.2.3.4 phases=1 conn=Delta model=3 kv=0.38 kw=0.5742015 pf=0.92 daily=RU1_DU status=variable vmaxpu=1.5 vminpu=0.92
New Load.BT_117107_M1 bus1=UC117107.1.4 phases=1 conn=Wye model=2 kv=0.219393102 kw=0.111108 pf=0.92 daily=RU3_DU status=variable vmaxpu=1.5 vminpu=0.92
New Load.BT_117107_M2 bus1=UC117107.1.4 phases=1 conn=Wye model=3 kv=0.219393102 kw=0.111108 pf=0.92 daily=RU3_DU status=variable vmaxpu=1.5 vminpu=0.92
New Load.BT_102216_M1 bus1=UC102216.1.2.3.4 phases=3 conn=Delta model=2 kv=0.38 kw=0.1442745 pf=0.92 daily=RU5_DU status=variable vmaxpu=1.5 vminpu=0.92
New Load.BT_102216_M2 bus1=UC102216.1.2.3.4 phases=3 conn=Delta model=3 kv=0.38 kw=0.1442745 pf=0.92 daily=RU5_DU status=variable vmaxpu=1.5 vminpu=0.92
New Load.BT_102210_M1 bus1=UC102210.1.2.3.4 phases=3 conn=Delta model=2 kv=0.38 kw=0.1662245 pf=0.92 daily=RU3_DU status=variable vmaxpu=1.5 vminpu=0.92
New Load.BT_102210_M2 bus1=UC102210.1.2.3.4 phases=3 conn=Delta model=3 kv=0.38 kw=0.1662245 pf=0.92 daily=RU3_DU status=variable vmaxpu=1.5 vminpu=0.92
New Load.BT_102211_M1 bus1=UC102211.1.2.3.4 phases=3 conn=Delta model=2 kv=0.38 kw=0.145441 pf=0.92 daily=RE6_DU status=variable vmaxpu=1.5 vminpu=0.92
New Load.BT_102211_M2 bus1=UC102211.1.2.3.4 phases=3 conn=Delta model=3 kv=0.38 kw=0.145441 pf=0.92 daily=RE6_DU status=variable vmaxpu=1.5 vminpu=0.92
New Load.BT_102209_M1 bus1=UC102209.1.4 phases=1 conn=Wye model=2 kv=0.219393102 kw=0.109163 pf=0.92 daily=CO2_DU status=variable vmaxpu=1.5 vminpu=0.92
New Load.BT_102209_M2 bus1=UC102209.1.4 phases=1 conn=Wye model=3 kv=0.219393102 kw=0.109163 pf=0.92 daily=CO2_DU status=variable vmaxpu=1.5 vminpu=0.92
New Load.BT_102217_M1 bus1=UC102217.1.2.3.4 phases=3 conn=Delta model=2 kv=0.38 kw=1.4181395 pf=0.92 daily=RU4_DU status=variable vmaxpu=1.5 vminpu=0.92
New Load.BT_102217_M2 bus1=UC102217.1.2.3.4 phases=3 conn=Delta model=3 kv=0.38 kw=1.4181395 pf=0.92 daily=RU4_DU status=variable vmaxpu=1.5 vminpu=0.92
New Load.BT_137897_M1 bus1=UC137897.1.2.3.4 phases=3 conn=Delta model=2 kv=0.38 kw=0.19422 pf=0.92 daily=RU3_DU status=variable vmaxpu=1.5 vminpu=0.92
New Load.BT_137897_M2 bus1=UC137897.1.2.3.4 phases=3 conn=Delta model=3 kv=0.38 kw=0.19422 pf=0.92 daily=RU3_DU status=variable vmaxpu=1.5 vminpu=0.92
New Load.BT_IP6244_M1 bus1=BT367401.1.4 phases=1 conn=Wye model=2 kv=0.219393102 kw=0.204713 pf=0.92 daily=IP1_DU status=variable vmaxpu=1.5 vminpu=0.92
New Load.BT_IP6244_M2 bus1=BT367401.1.4 phases=1 conn=Wye model=3 kv=0.219393102 kw=0.204713 pf=0.92 daily=IP1_DU status=variable vmaxpu=1.5 vminpu=0.92
New Load.BT_3034758_M1 bus1=UC3034758.1.2.3.4 phases=3 conn=Delta model=2 kv=0.38 kw=0.58791 pf=0.92 daily=RU3_DU status=variable vmaxpu=1.5 vminpu=0.92
New Load.BT_3034758_M2 bus1=UC3034758.1.2.3.4 phases=3 conn=Delta model=3 kv=0.38 kw=0.58791 pf=0.92 daily=RU3_DU status=variable vmaxpu=1.5 vminpu=0.92
New Load.BT_102283_M1 bus1=UC102283.1.4 phases=1 conn=Wye model=2 kv=0.219393102 kw=0.3990635 pf=0.92 daily=RU2_DU status=variable vmaxpu=1.5 vminpu=0.92
New Load.BT_102283_M2 bus1=UC102283.1.4 phases=1 conn=Wye model=3 kv=0.219393102 kw=0.3990635 pf=0.92 daily=RU2_DU status=variable vmaxpu=1.5 vminpu=0.92
New Load.BT_102213_M1 bus1=UC102213.2.4 phases=1 conn=Wye model=2 kv=0.219393102 kw=0.1157535 pf=0.92 daily=RU7_DU status=variable vmaxpu=1.5 vminpu=0.92
New Load.BT_102213_M2 bus1=UC102213.2.4 phases=1 conn=Wye model=3 kv=0.219393102 kw=0.1157535 pf=0.92 daily=RU7_DU status=variable vmaxpu=1.5 vminpu=0.92
New Load.BT_101661_M1 bus1=UC101661.3.4 phases=1 conn=Wye model=2 kv=0.219393102 kw=0.182922 pf=0.92 daily=RU4_DU status=variable vmaxpu=1.5 vminpu=0.92
New Load.BT_101661_M2 bus1=UC101661.3.4 phases=1 conn=Wye model=3 kv=0.219393102 kw=0.182922 pf=0.92 daily=RU4_DU status=variable vmaxpu=1.5 vminpu=0.92
New Load.BT_134325_M1 bus1=UC134325.1.2.3.4 phases=3 conn=Delta model=2 kv=0.38 kw=0.339204 pf=0.92 daily=RU2_DU status=variable vmaxpu=1.5 vminpu=0.92
New Load.BT_134325_M2 bus1=UC134325.1.2.3.4 phases=3 conn=Delta model=3 kv=0.38 kw=0.339204 pf=0.92 daily=RU2_DU status=variable vmaxpu=1.5 vminpu=0.92
New Load.BT_119728_M1 bus1=UC119728.1.2.3.4 phases=3 conn=Delta model=2 kv=0.38 kw=0.212096 pf=0.92 daily=RU5_DU status=variable vmaxpu=1.5 vminpu=0.92
New Load.BT_119728_M2 bus1=UC119728.1.2.3.4 phases=3 conn=Delta model=3 kv=0.38 kw=0.212096 pf=0.92 daily=RU5_DU status=variable vmaxpu=1.5 vminpu=0.92
New Load.BT_122519_M1 bus1=UC122519.1.2.3.4 phases=3 conn=Delta model=2 kv=0.38 kw=0.28449 pf=0.92 daily=RU6_DU status=variable vmaxpu=1.5 vminpu=0.92
New Load.BT_122519_M2 bus1=UC122519.1.2.3.4 phases=3 conn=Delta model=3 kv=0.38 kw=0.28449 pf=0.92 daily=RU6_DU status=variable vmaxpu=1.5 vminpu=0.92
New Load.BT_128562_M1 bus1=UC128562.1.2.3.4 phases=3 conn=Delta model=2 kv=0.38 kw=0.378817 pf=0.92 daily=RU3_DU status=variable vmaxpu=1.5 vminpu=0.92
New Load.BT_128562_M2 bus1=UC128562.1.2.3.4 phases=3 conn=Delta model=3 kv=0.38 kw=0.378817 pf=0.92 daily=RU3_DU status=variable vmaxpu=1.5 vminpu=0.92
New Load.BT_127313_M1 bus1=UC127313.1.4 phases=1 conn=Wye model=2 kv=0.219393102 kw=0.388464 pf=0.92 daily=RU4_DU status=variable vmaxpu=1.5 vminpu=0.92
New Load.BT_127313_M2 bus1=UC127313.1.4 phases=1 conn=Wye model=3 kv=0.219393102 kw=0.388464 pf=0.92 daily=RU4_DU status=variable vmaxpu=1.5 vminpu=0.92
New Load.BT_103903_M1 bus1=UC103903.2.4 phases=1 conn=Wye model=2 kv=0.219393102 kw=0.8742795 pf=0.92 daily=RU5_DU status=variable vmaxpu=1.5 vminpu=0.92
New Load.BT_103903_M2 bus1=UC103903.2.4 phases=1 conn=Wye model=3 kv=0.219393102 kw=0.8742795 pf=0.92 daily=RU5_DU status=variable vmaxpu=1.5 vminpu=0.92
New Load.BT_103904_M1 bus1=UC103904.1.4 phases=1 conn=Wye model=2 kv=0.219393102 kw=0.2115035 pf=0.92 daily=RU2_DU status=variable vmaxpu=1.5 vminpu=0.92
New Load.BT_103904_M2 bus1=UC103904.1.4 phases=1 conn=Wye model=3 kv=0.219393102 kw=0.2115035 pf=0.92 daily=RU2_DU status=variable vmaxpu=1.5 vminpu=0.92
New Load.BT_103905_M1 bus1=UC103905.1.2.3.4 phases=3 conn=Delta model=2 kv=0.38 kw=2.230671 pf=0.92 daily=RU7_DU status=variable vmaxpu=1.5 vminpu=0.92
New Load.BT_103905_M2 bus1=UC103905.1.2.3.4 phases=3 conn=Delta model=3 kv=0.38 kw=2.230671 pf=0.92 daily=RU7_DU status=variable vmaxpu=1.5 vminpu=0.92
New Load.BT_IP6426_M1 bus1=BT574971.1.4 phases=1 conn=Wye model=2 kv=0.219393102 kw=0.0466955 pf=0.92 daily=IP1_DU status=variable vmaxpu=1.5 vminpu=0.92
New Load.BT_IP6426_M2 bus1=BT574971.1.4 phases=1 conn=Wye model=3 kv=0.219393102 kw=0.0466955 pf=0.92 daily=IP1_DU status=variable vmaxpu=1.5 vminpu=0.92
New Load.BT_IP6427_M1 bus1=BT574971.1.4 phases=1 conn=Wye model=2 kv=0.219393102 kw=0.3905615 pf=0.92 daily=IP1_DU status=variable vmaxpu=1.5 vminpu=0.92
New Load.BT_IP6427_M2 bus1=BT574971.1.4 phases=1 conn=Wye model=3 kv=0.219393102 kw=0.3905615 pf=0.92 daily=IP1_DU status=variable vmaxpu=1.5 vminpu=0.92
New Load.BT_IP6432_M1 bus1=BT559921.1.4 phases=1 conn=Wye model=2 kv=0.219393102 kw=0.0466955 pf=0.92 daily=IP1_DU status=variable vmaxpu=1.5 vminpu=0.92
New Load.BT_IP6432_M2 bus1=BT559921.1.4 phases=1 conn=Wye model=3 kv=0.219393102 kw=0.0466955 pf=0.92 daily=IP1_DU status=variable vmaxpu=1.5 vminpu=0.92
New Load.BT_IP6433_M1 bus1=BT559921.1.4 phases=1 conn=Wye model=2 kv=0.219393102 kw=0.204713 pf=0.92 daily=IP1_DU status=variable vmaxpu=1.5 vminpu=0.92
New Load.BT_IP6433_M2 bus1=BT559921.1.4 phases=1 conn=Wye model=3 kv=0.219393102 kw=0.204713 pf=0.92 daily=IP1_DU status=variable vmaxpu=1.5 vminpu=0.92
New Load.BT_IP6434_M1 bus1=BT559921.1.4 phases=1 conn=Wye model=2 kv=0.219393102 kw=0.0350215 pf=0.92 daily=IP1_DU status=variable vmaxpu=1.5 vminpu=0.92
New Load.BT_IP6434_M2 bus1=BT559921.1.4 phases=1 conn=Wye model=3 kv=0.219393102 kw=0.0350215 pf=0.92 daily=IP1_DU status=variable vmaxpu=1.5 vminpu=0.92
New Load.BT_IP6435_M1 bus1=BT559921.1.4 phases=1 conn=Wye model=2 kv=0.219393102 kw=0.130187 pf=0.92 daily=IP1_DU status=variable vmaxpu=1.5 vminpu=0.92
New Load.BT_IP6435_M2 bus1=BT559921.1.4 phases=1 conn=Wye model=3 kv=0.219393102 kw=0.130187 pf=0.92 daily=IP1_DU status=variable vmaxpu=1.5 vminpu=0.92
New Load.BT_IP6436_M1 bus1=BT555371.1.4 phases=1 conn=Wye model=2 kv=0.219393102 kw=0.0466955 pf=0.92 daily=IP1_DU status=variable vmaxpu=1.5 vminpu=0.92
New Load.BT_IP6436_M2 bus1=BT555371.1.4 phases=1 conn=Wye model=3 kv=0.219393102 kw=0.0466955 pf=0.92 daily=IP1_DU status=variable vmaxpu=1.5 vminpu=0.92
New Load.BT_IP6437_M1 bus1=ET1_2777.1.4 phases=1 conn=Wye model=2 kv=0.219393102 kw=0.093391 pf=0.92 daily=IP1_DU status=variable vmaxpu=1.5 vminpu=0.92
New Load.BT_IP6437_M2 bus1=ET1_2777.1.4 phases=1 conn=Wye model=3 kv=0.219393102 kw=0.093391 pf=0.92 daily=IP1_DU status=variable vmaxpu=1.5 vminpu=0.92
New Load.BT_IP6438_M1 bus1=BT555351.1.4 phases=1 conn=Wye model=2 kv=0.219393102 kw=0.0466955 pf=0.92 daily=IP1_DU status=variable vmaxpu=1.5 vminpu=0.92
New Load.BT_IP6438_M2 bus1=BT555351.1.4 phases=1 conn=Wye model=3 kv=0.219393102 kw=0.0466955 pf=0.92 daily=IP1_DU status=variable vmaxpu=1.5 vminpu=0.92
New Load.BT_IP6439_M1 bus1=BT442011.1.4 phases=1 conn=Wye model=2 kv=0.219393102 kw=0.0350215 pf=0.92 daily=IP1_DU status=variable vmaxpu=1.5 vminpu=0.92
New Load.BT_IP6439_M2 bus1=BT442011.1.4 phases=1 conn=Wye model=3 kv=0.219393102 kw=0.0350215 pf=0.92 daily=IP1_DU status=variable vmaxpu=1.5 vminpu=0.92
New Load.BT_IP6440_M1 bus1=BT441371.1.4 phases=1 conn=Wye model=2 kv=0.219393102 kw=0.0350215 pf=0.92 daily=IP1_DU status=variable vmaxpu=1.5 vminpu=0.92
New Load.BT_IP6440_M2 bus1=BT441371.1.4 phases=1 conn=Wye model=3 kv=0.219393102 kw=0.0350215 pf=0.92 daily=IP1_DU status=variable vmaxpu=1.5 vminpu=0.92
New Load.BT_IP6441_M1 bus1=BT554081.1.4 phases=1 conn=Wye model=2 kv=0.219393102 kw=0.093391 pf=0.92 daily=IP1_DU status=variable vmaxpu=1.5 vminpu=0.92
New Load.BT_IP6441_M2 bus1=BT554081.1.4 phases=1 conn=Wye model=3 kv=0.219393102 kw=0.093391 pf=0.92 daily=IP1_DU status=variable vmaxpu=1.5 vminpu=0.92
New Load.BT_IP6442_M1 bus1=BT554071.1.4 phases=1 conn=Wye model=2 kv=0.219393102 kw=0.0466955 pf=0.92 daily=IP1_DU status=variable vmaxpu=1.5 vminpu=0.92
New Load.BT_IP6442_M2 bus1=BT554071.1.4 phases=1 conn=Wye model=3 kv=0.219393102 kw=0.0466955 pf=0.92 daily=IP1_DU status=variable vmaxpu=1.5 vminpu=0.92
New Load.BT_IP6443_M1 bus1=BT554071.1.4 phases=1 conn=Wye model=2 kv=0.219393102 kw=0.204713 pf=0.92 daily=IP1_DU status=variable vmaxpu=1.5 vminpu=0.92
New Load.BT_IP6443_M2 bus1=BT554071.1.4 phases=1 conn=Wye model=3 kv=0.219393102 kw=0.204713 pf=0.92 daily=IP1_DU status=variable vmaxpu=1.5 vminpu=0.92
New Load.BT_IP6444_M1 bus1=BT294441.1.4 phases=1 conn=Wye model=2 kv=0.219393102 kw=0.0350215 pf=0.92 daily=IP1_DU status=variable vmaxpu=1.5 vminpu=0.92
New Load.BT_IP6444_M2 bus1=BT294441.1.4 phases=1 conn=Wye model=3 kv=0.219393102 kw=0.0350215 pf=0.92 daily=IP1_DU status=variable vmaxpu=1.5 vminpu=0.92
New Load.BT_IP6445_M1 bus1=BT294431.1.4 phases=1 conn=Wye model=2 kv=0.219393102 kw=0.4094265 pf=0.92 daily=IP1_DU status=variable vmaxpu=1.5 vminpu=0.92
New Load.BT_IP6445_M2 bus1=BT294431.1.4 phases=1 conn=Wye model=3 kv=0.219393102 kw=0.4094265 pf=0.92 daily=IP1_DU status=variable vmaxpu=1.5 vminpu=0.92
New Load.BT_IP6446_M1 bus1=BT664571.1.4 phases=1 conn=Wye model=2 kv=0.219393102 kw=0.204713 pf=0.92 daily=IP1_DU status=variable vmaxpu=1.5 vminpu=0.92
New Load.BT_IP6446_M2 bus1=BT664571.1.4 phases=1 conn=Wye model=3 kv=0.219393102 kw=0.204713 pf=0.92 daily=IP1_DU status=variable vmaxpu=1.5 vminpu=0.92
New Load.BT_129103_M1 bus1=UC129103.1.2.3.4 phases=3 conn=Delta model=2 kv=0.38 kw=0.048737 pf=0.92 daily=RU6_DU status=variable vmaxpu=1.5 vminpu=0.92
New Load.BT_129103_M2 bus1=UC129103.1.2.3.4 phases=3 conn=Delta model=3 kv=0.38 kw=0.048737 pf=0.92 daily=RU6_DU status=variable vmaxpu=1.5 vminpu=0.92
New Load.BT_103368_M1 bus1=UC103368.1.2.3.4 phases=3 conn=Delta model=2 kv=0.38 kw=0.7287635 pf=0.92 daily=RU3_DU status=variable vmaxpu=1.5 vminpu=0.92
New Load.BT_103368_M2 bus1=UC103368.1.2.3.4 phases=3 conn=Delta model=3 kv=0.38 kw=0.7287635 pf=0.92 daily=RU3_DU status=variable vmaxpu=1.5 vminpu=0.92
New Load.BT_103369_M1 bus1=UC103369.1.2.3.4 phases=3 conn=Delta model=2 kv=0.38 kw=0.294717 pf=0.92 daily=RU8_DU status=variable vmaxpu=1.5 vminpu=0.92
New Load.BT_103369_M2 bus1=UC103369.1.2.3.4 phases=3 conn=Delta model=3 kv=0.38 kw=0.294717 pf=0.92 daily=RU8_DU status=variable vmaxpu=1.5 vminpu=0.92
New Load.BT_136027_M1 bus1=UC136027.1.2.3.4 phases=3 conn=Delta model=2 kv=0.38 kw=0.4436295 pf=0.92 daily=RU1_DU status=variable vmaxpu=1.5 vminpu=0.92
New Load.BT_136027_M2 bus1=UC136027.1.2.3.4 phases=3 conn=Delta model=3 kv=0.38 kw=0.4436295 pf=0.92 daily=RU1_DU status=variable vmaxpu=1.5 vminpu=0.92
New Load.BT_121945_M1 bus1=UC121945.1.4 phases=1 conn=Wye model=2 kv=0.22 kw=0.1601005 pf=0.92 daily=RU3_DU status=variable vmaxpu=1.5 vminpu=0.92
New Load.BT_121945_M2 bus1=UC121945.1.4 phases=1 conn=Wye model=3 kv=0.22 kw=0.1601005 pf=0.92 daily=RU3_DU status=variable vmaxpu=1.5 vminpu=0.92
New Load.BT_130467_M1 bus1=UC130467.1.4 phases=1 conn=Wye model=2 kv=0.22 kw=0.0371835 pf=0.92 daily=RE2_DU status=variable vmaxpu=1.5 vminpu=0.92
New Load.BT_130467_M2 bus1=UC130467.1.4 phases=1 conn=Wye model=3 kv=0.22 kw=0.0371835 pf=0.92 daily=RE2_DU status=variable vmaxpu=1.5 vminpu=0.92
New Load.BT_130472_M1 bus1=UC130472.1.4 phases=1 conn=Wye model=2 kv=0.22 kw=0.2901185 pf=0.92 daily=RU4_DU status=variable vmaxpu=1.5 vminpu=0.92
New Load.BT_130472_M2 bus1=UC130472.1.4 phases=1 conn=Wye model=3 kv=0.22 kw=0.2901185 pf=0.92 daily=RU4_DU status=variable vmaxpu=1.5 vminpu=0.92
New Load.BT_IP6447_M1 bus1=BT366811.1.4 phases=1 conn=Wye model=2 kv=0.22 kw=0.204713 pf=0.92 daily=IP1_DU status=variable vmaxpu=1.5 vminpu=0.92
New Load.BT_IP6447_M2 bus1=BT366811.1.4 phases=1 conn=Wye model=3 kv=0.22 kw=0.204713 pf=0.92 daily=IP1_DU status=variable vmaxpu=1.5 vminpu=0.92
New Load.BT_123403_M1 bus1=UC123403.1.2.3.4 phases=3 conn=Delta model=2 kv=0.38 kw=0.166754 pf=0.92 daily=RU1_DU status=variable vmaxpu=1.5 vminpu=0.92
New Load.BT_123403_M2 bus1=UC123403.1.2.3.4 phases=3 conn=Delta model=3 kv=0.38 kw=0.166754 pf=0.92 daily=RU1_DU status=variable vmaxpu=1.5 vminpu=0.92
New Load.BT_104067_M1 bus1=UC104067.1.2.3.4 phases=3 conn=Delta model=2 kv=0.38 kw=0.553684 pf=0.92 daily=RU4_DU status=variable vmaxpu=1.5 vminpu=0.92
New Load.BT_104067_M2 bus1=UC104067.1.2.3.4 phases=3 conn=Delta model=3 kv=0.38 kw=0.553684 pf=0.92 daily=RU4_DU status=variable vmaxpu=1.5 vminpu=0.92
New Load.BT_103362_M1 bus1=UC103362.2.4 phases=1 conn=Wye model=2 kv=0.219393102 kw=0 pf=0.92 daily=CO1_DU status=variable vmaxpu=1.5 vminpu=0.92
New Load.BT_103362_M2 bus1=UC103362.2.4 phases=1 conn=Wye model=3 kv=0.219393102 kw=0 pf=0.92 daily=CO1_DU status=variable vmaxpu=1.5 vminpu=0.92
New Load.BT_102492_M1 bus1=UC102492.1.4 phases=1 conn=Wye model=2 kv=0.219393102 kw=0.189461 pf=0.92 daily=RU8_DU status=variable vmaxpu=1.5 vminpu=0.92
New Load.BT_102492_M2 bus1=UC102492.1.4 phases=1 conn=Wye model=3 kv=0.219393102 kw=0.189461 pf=0.92 daily=RU8_DU status=variable vmaxpu=1.5 vminpu=0.92
New Load.BT_102493_M1 bus1=UC102493.1.2.3.4 phases=3 conn=Delta model=2 kv=0.38 kw=0.0219485 pf=0.92 daily=RU2_DU status=variable vmaxpu=1.5 vminpu=0.92
New Load.BT_102493_M2 bus1=UC102493.1.2.3.4 phases=3 conn=Delta model=3 kv=0.38 kw=0.0219485 pf=0.92 daily=RU2_DU status=variable vmaxpu=1.5 vminpu=0.92
New Load.BT_102495_M1 bus1=UC102495.1.2.3.4 phases=3 conn=Delta model=2 kv=0.38 kw=0.4848625 pf=0.92 daily=RU2_DU status=variable vmaxpu=1.5 vminpu=0.92
New Load.BT_102495_M2 bus1=UC102495.1.2.3.4 phases=3 conn=Delta model=3 kv=0.38 kw=0.4848625 pf=0.92 daily=RU2_DU status=variable vmaxpu=1.5 vminpu=0.92
New Load.BT_102478_M1 bus1=UC102478.1.2.4 phases=1 conn=Delta model=2 kv=0.44 kw=0.65793 pf=0.92 daily=RU4_DU status=variable vmaxpu=1.5 vminpu=0.92
New Load.BT_102478_M2 bus1=UC102478.1.2.4 phases=1 conn=Delta model=3 kv=0.44 kw=0.65793 pf=0.92 daily=RU4_DU status=variable vmaxpu=1.5 vminpu=0.92
New Load.BT_IP6243_M1 bus1=BT294411.1.4 phases=1 conn=Wye model=2 kv=0.22 kw=0.0233475 pf=0.92 daily=IP1_DU status=variable vmaxpu=1.5 vminpu=0.92
New Load.BT_IP6243_M2 bus1=BT294411.1.4 phases=1 conn=Wye model=3 kv=0.22 kw=0.0233475 pf=0.92 daily=IP1_DU status=variable vmaxpu=1.5 vminpu=0.92
New Load.BT_102260_M1 bus1=UC102260.1.2.4 phases=1 conn=Delta model=2 kv=0.44 kw=0.364888 pf=0.92 daily=RU8_DU status=variable vmaxpu=1.5 vminpu=0.92
New Load.BT_102260_M2 bus1=UC102260.1.2.4 phases=1 conn=Delta model=3 kv=0.44 kw=0.364888 pf=0.92 daily=RU8_DU status=variable vmaxpu=1.5 vminpu=0.92
New Load.BT_102262_M1 bus1=UC102262.1.4 phases=1 conn=Wye model=2 kv=0.22 kw=0.2413875 pf=0.92 daily=RU8_DU status=variable vmaxpu=1.5 vminpu=0.92
New Load.BT_102262_M2 bus1=UC102262.1.4 phases=1 conn=Wye model=3 kv=0.22 kw=0.2413875 pf=0.92 daily=RU8_DU status=variable vmaxpu=1.5 vminpu=0.92
New Load.BT_103366_M1 bus1=UC103366.1.4 phases=1 conn=Wye model=2 kv=0.22 kw=0.4155615 pf=0.92 daily=RU3_DU status=variable vmaxpu=1.5 vminpu=0.92
New Load.BT_103366_M2 bus1=UC103366.1.4 phases=1 conn=Wye model=3 kv=0.22 kw=0.4155615 pf=0.92 daily=RU3_DU status=variable vmaxpu=1.5 vminpu=0.92
New Load.BT_138079_M1 bus1=UC138079.2.4 phases=1 conn=Wye model=2 kv=0.22 kw=0.1740235 pf=0.92 daily=RU8_DU status=variable vmaxpu=1.5 vminpu=0.92
New Load.BT_138079_M2 bus1=UC138079.2.4 phases=1 conn=Wye model=3 kv=0.22 kw=0.1740235 pf=0.92 daily=RU8_DU status=variable vmaxpu=1.5 vminpu=0.92
New Load.BT_135494_M1 bus1=UC135494.2.4 phases=1 conn=Wye model=2 kv=0.219393102 kw=0.2245465 pf=0.92 daily=RU8_DU status=variable vmaxpu=1.5 vminpu=0.92
New Load.BT_135494_M2 bus1=UC135494.2.4 phases=1 conn=Wye model=3 kv=0.219393102 kw=0.2245465 pf=0.92 daily=RU8_DU status=variable vmaxpu=1.5 vminpu=0.92
New Load.BT_134755_M1 bus1=UC134755.2.4 phases=1 conn=Wye model=2 kv=0.219393102 kw=0 pf=0.92 daily=CO5_DU status=variable vmaxpu=1.5 vminpu=0.92
New Load.BT_134755_M2 bus1=UC134755.2.4 phases=1 conn=Wye model=3 kv=0.219393102 kw=0 pf=0.92 daily=CO5_DU status=variable vmaxpu=1.5 vminpu=0.92
New Load.BT_127612_M1 bus1=UC127612.3.4 phases=1 conn=Wye model=2 kv=0.219393102 kw=0.4121665 pf=0.92 daily=RU1_DU status=variable vmaxpu=1.5 vminpu=0.92
New Load.BT_127612_M2 bus1=UC127612.3.4 phases=1 conn=Wye model=3 kv=0.219393102 kw=0.4121665 pf=0.92 daily=RU1_DU status=variable vmaxpu=1.5 vminpu=0.92
New Load.BT_101895_M1 bus1=UC101895.1.4 phases=1 conn=Wye model=2 kv=0.219393102 kw=0.185688 pf=0.92 daily=RU7_DU status=variable vmaxpu=1.5 vminpu=0.92
New Load.BT_101895_M2 bus1=UC101895.1.4 phases=1 conn=Wye model=3 kv=0.219393102 kw=0.185688 pf=0.92 daily=RU7_DU status=variable vmaxpu=1.5 vminpu=0.92
New Load.BT_102039_M1 bus1=UC102039.1.2.3.4 phases=3 conn=Delta model=2 kv=0.38 kw=0.109515 pf=0.92 daily=CO7_DU status=variable vmaxpu=1.5 vminpu=0.92
New Load.BT_102039_M2 bus1=UC102039.1.2.3.4 phases=3 conn=Delta model=3 kv=0.38 kw=0.109515 pf=0.92 daily=CO7_DU status=variable vmaxpu=1.5 vminpu=0.92
New Load.BT_130891_M1 bus1=UC130891.1.4 phases=1 conn=Wye model=2 kv=0.22 kw=0.3059445 pf=0.92 daily=RU8_DU status=variable vmaxpu=1.5 vminpu=0.92
New Load.BT_130891_M2 bus1=UC130891.1.4 phases=1 conn=Wye model=3 kv=0.22 kw=0.3059445 pf=0.92 daily=RU8_DU status=variable vmaxpu=1.5 vminpu=0.92
New Load.BT_119054_M1 bus1=UC119054.1.4 phases=1 conn=Wye model=2 kv=0.22 kw=0.449922 pf=0.92 daily=RU1_DU status=variable vmaxpu=1.5 vminpu=0.92
New Load.BT_119054_M2 bus1=UC119054.1.4 phases=1 conn=Wye model=3 kv=0.22 kw=0.449922 pf=0.92 daily=RU1_DU status=variable vmaxpu=1.5 vminpu=0.92
New Load.BT_118511_M1 bus1=UC118511.1.2.4 phases=1 conn=Delta model=2 kv=0.44 kw=0.712609 pf=0.92 daily=RU7_DU status=variable vmaxpu=1.5 vminpu=0.92
New Load.BT_118511_M2 bus1=UC118511.1.2.4 phases=1 conn=Delta model=3 kv=0.44 kw=0.712609 pf=0.92 daily=RU7_DU status=variable vmaxpu=1.5 vminpu=0.92
New Load.BT_122736_M1 bus1=UC122736.1.4 phases=1 conn=Wye model=2 kv=0.22 kw=0.2357735 pf=0.92 daily=RU8_DU status=variable vmaxpu=1.5 vminpu=0.92
New Load.BT_122736_M2 bus1=UC122736.1.4 phases=1 conn=Wye model=3 kv=0.22 kw=0.2357735 pf=0.92 daily=RU8_DU status=variable vmaxpu=1.5 vminpu=0.92
New Load.BT_119211_M1 bus1=UC119211.1.2.3.4 phases=3 conn=Delta model=2 kv=0.38 kw=0.2300895 pf=0.92 daily=RU3_DU status=variable vmaxpu=1.5 vminpu=0.92
New Load.BT_119211_M2 bus1=UC119211.1.2.3.4 phases=3 conn=Delta model=3 kv=0.38 kw=0.2300895 pf=0.92 daily=RU3_DU status=variable vmaxpu=1.5 vminpu=0.92
New Load.BT_129689_M1 bus1=UC129689.2.4 phases=1 conn=Wye model=2 kv=0.219393102 kw=0.2568285 pf=0.92 daily=RU7_DU status=variable vmaxpu=1.5 vminpu=0.92
New Load.BT_129689_M2 bus1=UC129689.2.4 phases=1 conn=Wye model=3 kv=0.219393102 kw=0.2568285 pf=0.92 daily=RU7_DU status=variable vmaxpu=1.5 vminpu=0.92
New Load.BT_132250_M1 bus1=UC132250.1.2.3.4 phases=3 conn=Delta model=2 kv=0.38 kw=0.0801525 pf=0.92 daily=RU5_DU status=variable vmaxpu=1.5 vminpu=0.92
New Load.BT_132250_M2 bus1=UC132250.1.2.3.4 phases=3 conn=Delta model=3 kv=0.38 kw=0.0801525 pf=0.92 daily=RU5_DU status=variable vmaxpu=1.5 vminpu=0.92
New Load.BT_102264_M1 bus1=UC102264.1.2.3.4 phases=3 conn=Delta model=2 kv=0.38 kw=1.4244675 pf=0.92 daily=RU8_DU status=variable vmaxpu=1.5 vminpu=0.92
New Load.BT_102264_M2 bus1=UC102264.1.2.3.4 phases=3 conn=Delta model=3 kv=0.38 kw=1.4244675 pf=0.92 daily=RU8_DU status=variable vmaxpu=1.5 vminpu=0.92
New Load.BT_102265_M1 bus1=UC102265.1.2.3.4 phases=3 conn=Delta model=2 kv=0.38 kw=0.128605 pf=0.92 daily=RU3_DU status=variable vmaxpu=1.5 vminpu=0.92
New Load.BT_102265_M2 bus1=UC102265.1.2.3.4 phases=3 conn=Delta model=3 kv=0.38 kw=0.128605 pf=0.92 daily=RU3_DU status=variable vmaxpu=1.5 vminpu=0.92
New Load.BT_102266_M1 bus1=UC102266.1.2.3.4 phases=3 conn=Delta model=2 kv=0.38 kw=2.5169365 pf=0.92 daily=CO2_DU status=variable vmaxpu=1.5 vminpu=0.92
New Load.BT_102266_M2 bus1=UC102266.1.2.3.4 phases=3 conn=Delta model=3 kv=0.38 kw=2.5169365 pf=0.92 daily=CO2_DU status=variable vmaxpu=1.5 vminpu=0.92
New Load.BT_102267_M1 bus1=UC102267.1.2.3.4 phases=3 conn=Delta model=2 kv=0.38 kw=0.411434 pf=0.92 daily=RU6_DU status=variable vmaxpu=1.5 vminpu=0.92
New Load.BT_102267_M2 bus1=UC102267.1.2.3.4 phases=3 conn=Delta model=3 kv=0.38 kw=0.411434 pf=0.92 daily=RU6_DU status=variable vmaxpu=1.5 vminpu=0.92
New Load.BT_102268_M1 bus1=UC102268.1.2.3.4 phases=3 conn=Delta model=2 kv=0.38 kw=0.231633 pf=0.92 daily=CO4_DU status=variable vmaxpu=1.5 vminpu=0.92
New Load.BT_102268_M2 bus1=UC102268.1.2.3.4 phases=3 conn=Delta model=3 kv=0.38 kw=0.231633 pf=0.92 daily=CO4_DU status=variable vmaxpu=1.5 vminpu=0.92
New Load.BT_102269_M1 bus1=UC102269.1.4 phases=1 conn=Wye model=2 kv=0.219393102 kw=0.389087 pf=0.92 daily=RU2_DU status=variable vmaxpu=1.5 vminpu=0.92
New Load.BT_102269_M2 bus1=UC102269.1.4 phases=1 conn=Wye model=3 kv=0.219393102 kw=0.389087 pf=0.92 daily=RU2_DU status=variable vmaxpu=1.5 vminpu=0.92
New Load.BT_102270_M1 bus1=UC102270.1.2.3.4 phases=3 conn=Delta model=2 kv=0.38 kw=0.0008745 pf=0.92 daily=RU3_DU status=variable vmaxpu=1.5 vminpu=0.92
New Load.BT_102270_M2 bus1=UC102270.1.2.3.4 phases=3 conn=Delta model=3 kv=0.38 kw=0.0008745 pf=0.92 daily=RU3_DU status=variable vmaxpu=1.5 vminpu=0.92
New Load.BT_102272_M1 bus1=UC102272.1.2.3.4 phases=3 conn=Delta model=2 kv=0.38 kw=0.6879905 pf=0.92 daily=RU6_DU status=variable vmaxpu=1.5 vminpu=0.92
New Load.BT_102272_M2 bus1=UC102272.1.2.3.4 phases=3 conn=Delta model=3 kv=0.38 kw=0.6879905 pf=0.92 daily=RU6_DU status=variable vmaxpu=1.5 vminpu=0.92
New Load.BT_IP6242_M1 bus1=BT300501.1.4 phases=1 conn=Wye model=2 kv=0.219393102 kw=0.0466955 pf=0.92 daily=IP1_DU status=variable vmaxpu=1.5 vminpu=0.92
New Load.BT_IP6242_M2 bus1=BT300501.1.4 phases=1 conn=Wye model=3 kv=0.219393102 kw=0.0466955 pf=0.92 daily=IP1_DU status=variable vmaxpu=1.5 vminpu=0.92
New Load.BT_126089_M1 bus1=UC126089.1.2.3.4 phases=3 conn=Delta model=2 kv=0.38 kw=0.830802 pf=0.92 daily=RU6_DU status=variable vmaxpu=1.5 vminpu=0.92
New Load.BT_126089_M2 bus1=UC126089.1.2.3.4 phases=3 conn=Delta model=3 kv=0.38 kw=0.830802 pf=0.92 daily=RU6_DU status=variable vmaxpu=1.5 vminpu=0.92
New Load.BT_102569_M1 bus1=UC102569.1.2.3.4 phases=3 conn=Delta model=2 kv=0.38 kw=1.027186 pf=0.92 daily=RU5_DU status=variable vmaxpu=1.5 vminpu=0.92
New Load.BT_102569_M2 bus1=UC102569.1.2.3.4 phases=3 conn=Delta model=3 kv=0.38 kw=1.027186 pf=0.92 daily=RU5_DU status=variable vmaxpu=1.5 vminpu=0.92
New Load.BT_130225_M1 bus1=UC130225.1.2.3.4 phases=3 conn=Delta model=2 kv=0.38 kw=9.527646 pf=0.92 daily=SP1_DU status=variable vmaxpu=1.5 vminpu=0.92
New Load.BT_130225_M2 bus1=UC130225.1.2.3.4 phases=3 conn=Delta model=3 kv=0.38 kw=9.527646 pf=0.92 daily=SP1_DU status=variable vmaxpu=1.5 vminpu=0.92
New Load.BT_128791_M1 bus1=UC128791.1.2.3.4 phases=3 conn=Delta model=2 kv=0.38 kw=0.107747 pf=0.92 daily=RU2_DU status=variable vmaxpu=1.5 vminpu=0.92
New Load.BT_128791_M2 bus1=UC128791.1.2.3.4 phases=3 conn=Delta model=3 kv=0.38 kw=0.107747 pf=0.92 daily=RU2_DU status=variable vmaxpu=1.5 vminpu=0.92
New Load.BT_123131_M1 bus1=UC123131.1.4 phases=1 conn=Wye model=2 kv=0.219393102 kw=0.7462495 pf=0.92 daily=RU2_DU status=variable vmaxpu=1.5 vminpu=0.92
New Load.BT_123131_M2 bus1=UC123131.1.4 phases=1 conn=Wye model=3 kv=0.219393102 kw=0.7462495 pf=0.92 daily=RU2_DU status=variable vmaxpu=1.5 vminpu=0.92
...
